       96        
  the frame 856
C	-4.041037554194723	-0.489569143512075	-1.751600671807212
C	2.1993583364493343	0.18338148943376573	-2.030517953567623
C	-4.39562403531835	5.318797136077152	-1.6510072515071623
C	2.4619696384016083	5.536863936726927	-1.1744095474756864
C	-3.8039615762890566	-1.336420407458872	2.8225946461398523
C	2.333109547822285	-1.272283377265255	4.491236186156045
C	-3.3282800506018906	6.768882011073535	4.404489888322022
C	2.0271271037577168	5.5788226626021284	4.141990157425967
N	-2.652199425508906	-0.6772397623140561	-2.130546822817346
N	2.959512490588491	-1.082695908863854	-2.0675395336178126
N	-2.998084716582994	5.070707931633309	-2.1876175775525883
N	2.5534999194578165	5.477299605432803	-2.6782188844471477
N	-3.5280269804345594	-0.5455651380136046	4.0877635752333195
N	3.602690200231251	-0.56184666277048	4.231336801745303
N	-3.6936308541513916	5.3498252737734	4.117220286698223
N	3.5235781000388884	5.735741156117944	4.386254264314491
H	-4.0695550699024015	0.32320063200467425	-1.0485215847671117
H	3.0114465934296453	0.9668085727694924	-2.2120652323058594
H	-4.3766910682676805	5.292276051120365	-0.5704313106000317
H	3.4862977133200195	5.814924247458621	-0.7290012273868368
H	-4.833107233856218	-1.604103220762991	2.773565484788113
H	1.5846413795567413	-0.523070293425741	4.316127682367075
H	-4.192711266084762	7.470805250739681	4.135003343318075
H	1.8684894831787953	4.677423821340953	4.797027104814214
H	-4.377158018130189	-1.3957218926723256	-1.2533334770618119
H	1.7301668444615697	0.2603771761320026	-1.0448382093310644
H	-5.0270042146782306	4.527011237648328	-2.0488702847614655
H	1.9231246690575066	4.653248509518386	-0.853343897657197
H	-3.162123343001324	-2.230575961947021	2.9347306459967415
H	2.382640893038152	-1.6103021559793014	5.606999351836325
H	-2.3687281629660086	6.937567875970271	3.93379874851263
H	1.8706961477757693	5.334653214832071	3.1249359419489307
H	-4.672682031202668	-0.44397105012755606	-2.6661461604910253
H	1.4164347967767954	0.10484107847294233	-2.8023852679842403
H	-4.637936018058051	6.260643577618193	-2.036320654172859
H	1.8026760407676332	6.370226818279273	-1.0114129741150688
H	-3.442556665473526	-0.7254942154421898	1.9422565579686681
H	2.091219015990615	-2.1043304236808575	3.9256750494421593
H	-3.201889767557164	6.829747638868148	5.516610424857434
H	1.5477230287152417	6.491237778125266	4.539687112543166
H	-2.545878179394567	-1.4490077153318697	-2.8042983297252446
H	2.238017732641555	-1.8502341343958681	-2.04657096476097
H	-2.9377010814088695	5.074824778521189	-3.2225731349014985
H	1.7402119323107623	5.106492259545961	-3.139336134544281
H	-2.631037664490876	0.02395756400875168	3.899448975414844
H	4.44734304554846	-1.101818711036422	4.5922628049512255
H	-4.33933959624673	4.99044430838408	4.92003673416928
H	3.910034232888256	4.769204074350161	4.487155091386294
H	-1.9531494533346465	-0.8433901185048128	-1.3553529247769518
H	3.5841761032439803	-1.1220269166301127	-1.279946938889236
H	-2.657398834024432	4.099674137283082	-2.080840698368282
H	3.2693746449460637	4.731098492667303	-2.9453667128450807
H	-3.5189540072228924	-1.1411282968995984	4.916591801350302
H	3.6016232648173987	0.4458396506257941	4.637041418661006
H	-2.9445997407992746	4.682255640166777	3.974660463104892
H	3.651969109840128	6.366889845736439	5.2271130343195775
H	-2.225823609557944	0.17822935310519653	-2.6124996825036004
H	3.5662107865473507	-1.2574516438976733	-2.8981660460567333
H	-2.328813164944402	5.777025394700945	-1.7867707483534543
H	2.751083647006198	6.375044500247895	-3.132871910357616
H	-4.22726558090093	0.32744965860803804	4.1467190906964415
H	3.799389292953711	-0.40719680295451477	3.1959197423949255
H	-4.2643477770765115	5.284088846652952	3.2830967438607805
H	3.981300947468887	6.158063375865741	3.516051640951298
Pb	-5.848850377005801	-3.8301355102764534	-5.249445829999976
Pb	0.18498825809266353	-4.278725220807089	-5.225747249909625
Pb	-5.911199395574846	2.0076994040608462	-5.285941559407807
Pb	0.5154502232317374	2.3889220620029006	-5.563400214545858
Pb	-6.465943682768703	-3.9655617738484916	0.6140988821368224
Pb	-0.018577600903883898	-3.996370749922387	1.2796456253731632
Pb	-6.739524850106467	2.7197212977224705	0.507650809628054
Pb	-0.13637596336378768	2.5232932971955786	1.133728266074208
I	-3.067208934678553	-2.744478607622121	-5.367599003931095
I	3.288724363146855	-5.077728077128671	-5.278912914115913
I	-3.049915233601317	2.024778828819777	-4.482014994256621
I	3.553303381505571	2.3505894397416616	-6.1272117841033085
I	-3.340888054750176	-3.9038770573190242	0.10134329629359923
I	2.803440739760023	-4.393505236655524	1.9675718005503267
I	-3.626863426943325	2.3349952565983334	0.8545655352950738
I	3.113899439574709	2.6951716073814684	2.1685549121253898
I	-0.25501903027925943	-0.9401048053685922	0.7691529602147266
I	5.055198506046915	-0.8647065632972597	0.7817668446962429
I	-1.4505451988291076	5.4393794410761425	1.146322902449711
I	6.344188288627188	5.3167208476263585	2.0399519583221117
I	0.5090673120448428	-0.5484517109993985	7.259898202324068
I	4.765621007302011	-1.0402429761707856	7.693496079927654
I	-0.9904206303697873	5.8988682557166365	7.777081726613334
I	6.488875021653299	5.30022732685949	7.0502427923500015
I	0.31851115670813107	-3.6274255658968486	-2.2004205404451427
I	4.882389405860075	-5.036817696851419	-1.8599761526470697
I	0.042000006782377426	2.682924599156166	-2.2357671823607927
I	5.033239260567032	2.964010964652967	-2.3181941785344238
I	-1.1231598599799673	-3.4545781389183183	4.012973779146458
I	5.768081295804849	-4.016247367166203	4.626162324988433
I	-1.221255881219791	2.4019379457825862	4.071295121371516
I	6.831569747305585	1.818978825076251	4.459692953662097
