       96        
  the frame 4069
C	-3.888161922712271	-0.7248535519215362	-1.830615744735575
C	3.647059706293554	-1.5993825561782504	-1.8052142625577092
C	-4.1785365153739775	4.686497295751204	-2.1091454842867967
C	2.781125768971653	5.290492881471673	-0.3363644457088653
C	-3.316811709682565	-1.067665714989741	2.609550044817252
C	2.9050231609398334	-0.2853632314247076	3.8528831715656824
C	-3.1040574436576636	6.423597398791869	3.890967971112193
C	2.1891660121937186	5.926501645071848	3.7123978916255442
N	-2.5575812499659065	-0.2978167205408481	-2.365532280541381
N	2.7043703320062322	-2.4155418435265044	-2.7238012634889337
N	-2.798848237550955	5.034888573111732	-1.7623196689338345
N	2.2705924799118784	5.008153041661846	-1.7775631532013978
N	-4.046751042703134	-1.202395337375129	3.872157041181438
N	3.1738166667991075	-1.5667230392500162	4.504560836098383
N	-3.7964554950106684	5.309827942839598	4.627056597758684
N	3.667387263681467	6.067769507744707	3.9333937167714
H	-3.722319744745891	-0.9578050530394572	-0.8114782412403703
H	4.622297707764313	-1.68284291653836	-2.300531476891404
H	-4.398353183146657	4.982511049505627	-3.1271344031335753
H	2.0858485106798734	6.0037046461025225	0.1276979674522579
H	-4.0469408131875735	-0.7866650160326594	1.7763480467133277
H	3.844503132650046	0.22729377720157679	3.5483293606633644
H	-3.469825558404397	7.417316810401671	4.194025833166667
H	1.9766246979749598	5.580857790407617	2.705692539404304
H	-4.196269282923105	-1.5477706059317278	-2.4995605191857764
H	3.531903141693598	-2.022891000688037	-0.8076328947888816
H	-4.956558596432029	5.189527520649988	-1.461217363863069
H	3.823756480979702	5.664848906455236	-0.36245993830024265
H	-2.712443851977675	-1.978869367633408	2.51657330091968
H	2.451593011051381	0.42163724328136937	4.583570122672065
H	-3.425707510013478	6.3185865114729785	2.8613213400584567
H	1.741553468314007	6.951552190344291	3.7336242773211525
H	-4.545517359056654	0.09427500269373297	-1.979848705547661
H	3.3469766192605013	-0.5714066039239191	-1.7944611224087585
H	-4.273060092424014	3.5990849376594234	-2.076332900869227
H	2.8215910708568086	4.36602490754034	0.24227174206903285
H	-2.6350013302764723	-0.1817440166271316	2.6523216664299607
H	2.1941021803928185	-0.5094591555818135	3.0720288334746657
H	-2.010200831788005	6.213422556803108	4.061612193217331
H	1.8236201004009986	5.257684819013969	4.54000716503273
H	-2.6151980366922025	-0.08019697035778993	-3.3844717525998664
H	2.6636292276886793	-1.9686481425398998	-3.6914904595688243
H	-2.038326451741235	4.355586628707349	-2.1339071227138793
H	1.2864932457817206	4.733928625850959	-1.7912609204022267
H	-4.758214610164898	-1.9871285370401919	3.94086892047557
H	2.326989056830584	-1.963628393211344	4.994689255283851
H	-4.261713559965599	4.584677802726384	4.003683498354054
H	4.155959829079124	5.251635418807414	3.658845379484108
H	-1.9217854757301087	-1.1559279376593206	-2.46439064018303
H	1.717924617507247	-2.3664495724640755	-2.402105192197032
H	-2.612616678866029	5.132585631598288	-0.7092147652235776
H	2.742245506463125	4.153714217964575	-2.1434763323159824
H	-4.538553076511307	-0.2998178882188879	4.017870478493882
H	3.7852349959848293	-1.3839236742811833	5.323733122283822
H	-4.4250654299510686	5.569285425022329	5.476681654242305
H	3.8180829489007557	6.264914940782067	4.936148215247083
H	-2.113077846002992	0.43314165916726743	-1.7638619304853802
H	3.000323753811002	-3.3634357880398316	-2.723204169610524
H	-2.487873925676664	5.956356167665257	-2.073662746372044
H	2.41407615739428	5.835033985139255	-2.340078144423835
H	-3.3134063859796656	-1.320298930813676	4.670084934574523
H	3.512748349993669	-2.2566047518794456	3.848502002006843
H	-3.0340579440953848	4.766378508561913	5.13341358590184
H	4.1155824182036165	6.877373397118388	3.4939056894179776
Pb	-6.127531900655785	-4.082558479112064	-5.36984538874502
Pb	-0.19718849323859022	-4.346400227327037	-5.393458505038624
Pb	-6.8276740250629135	1.7605029258347822	-4.87672926864569
Pb	0.29974496355189506	2.388434242777146	-5.3856166215426144
Pb	-6.158319471135976	-4.451814939695939	0.4110786814248993
Pb	0.027499830621809065	-3.5191586716728764	0.9071358473879952
Pb	-6.353131733536507	1.9501738888931437	1.028638941519945
Pb	0.23669998319505456	2.278530890255466	1.462080424342091
I	-3.356262468262203	-2.901796181238048	-5.1197639783748015
I	2.9607020682411656	-4.388385623332987	-5.680508531948262
I	-3.7195499324929586	1.768818754336523	-5.053179932283673
I	3.0335884442176244	4.02145960293738	-5.257066702027962
I	-3.3607568849650535	-4.337621150450526	-0.9142729928246911
I	2.839653208644539	-3.6602460614038757	1.8516618489046908
I	-3.3084892921474527	2.2046295423312716	0.6861480460217129
I	2.936921961561002	2.917845934426703	2.3869782336266843
I	0.1869305702603924	-0.8342873220846312	-0.3821394682372104
I	5.862199923368175	-0.704004300226325	1.0038584751028055
I	-0.6364369878407486	5.174701016430628	1.378032500030525
I	6.303489857493316	5.826892720988824	1.9149242836201845
I	0.23071502865124313	-0.4816547017608769	8.008779803384234
I	4.897799854213412	-0.527238805084494	7.395548542473641
I	-1.261722342161228	5.452189536662617	7.478411061898901
I	6.522233600245317	6.1745694807978575	6.98969716285139
I	0.4632179628627461	-4.897788030784157	-1.7199854486799082
I	5.142110758494232	-5.004276341218854	-2.19561761581693
I	-0.3155838715150745	2.690610780175069	-1.9971059885536446
I	4.405052018302165	2.1534598960881763	-1.9493747871867924
I	-0.6463552741671321	-2.7552859979845556	4.47655679738333
I	6.669956479196109	-3.6593130562262863	4.157145612695969
I	-0.9932546998440452	2.116272369552279	4.349881289107312
I	6.659325403534972	2.3998507674038527	4.237553207719973
