       96        
  the frame 912
C	-3.9047113000199243	-0.639717770515342	-2.046158630874045
C	2.650527163358271	-0.12762333837917442	-2.009951013507382
C	-4.19157615029151	5.591279674248383	-1.9067207349032083
C	2.376342054233814	5.434647562416323	-1.21841859019252
C	-4.333891761901923	-0.797945662033632	2.754726880358278
C	2.536253446574626	-0.807439074266026	3.7892939758947533
C	-3.3832236191911287	6.615135162890276	4.351867663650331
C	1.720299680563222	5.6280776788810885	4.248664815295448
N	-2.4100525119630296	-0.7258653839870549	-2.304542560182336
N	3.313092101250289	-1.4481717331760897	-2.1335661874832583
N	-2.800171007336198	5.204750782815034	-1.7309058001018327
N	2.227818335285661	5.20180350092707	-2.724733538950031
N	-3.538686604355502	-0.5780483295600729	4.013631950817407
N	3.930026725624646	-0.5734350944974731	4.201220328733094
N	-3.4293328110521304	5.145165490204784	4.171172696270631
N	3.204136855500169	5.407833850463153	4.28156627732244
H	-4.2542326706548765	0.3794840038425674	-2.138992705776683
H	3.127268581065413	0.5793717997397476	-2.6634931271975986
H	-4.793411581368452	5.297470253453196	-1.0517958848471123
H	3.048591501568854	4.747559333878368	-0.7652286048869646
H	-4.945277588096452	-1.7401803303235852	2.935877219583878
H	2.2275988704163874	0.17587456115066458	3.35370848793568
H	-4.339330497022155	7.0916345334688575	4.209500682388693
H	1.4561931750914312	5.794739434828626	5.284983807867333
H	-4.038461531920296	-0.996434409246742	-1.029450264908701
H	2.5922184582638654	0.22607737914629267	-0.9436022770074789
H	-4.641334171681195	5.119785743393566	-2.7791220349292542
H	1.3636269680582869	5.361337773388427	-0.7703250418073705
H	-3.584895913364777	-1.0756355583477313	2.0309725805660412
H	2.0196368416117765	-1.046463949665867	4.692980283269594
H	-2.612692377175446	7.080555274758296	3.6379521023570405
H	1.2387520463593766	4.6555510502461654	3.9616991872569107
H	-4.4798125324954645	-1.3738235174224842	-2.6624826564534234
H	1.5529900049927918	-0.13282033672806384	-2.2470293524214946
H	-4.19916443122105	6.667991237044932	-2.12283372579102
H	2.672289889565839	6.499850850111786	-1.107560156873425
H	-4.924481177431023	0.04159726893090649	2.586981910933118
H	2.49762309472126	-1.5908694665584329	2.96122208887655
H	-3.134340988570573	6.829443129736417	5.4042868550893415
H	1.5006961872027968	6.531388091266163	3.7179713051621035
H	-1.951435063958727	-1.5768347653492554	-2.01478302425021
H	2.5815988473506915	-2.1704336669088335	-2.0005965608633636
H	-2.2339671528779204	5.693810468762329	-2.428421290295446
H	1.427155366994796	5.709882486481865	-3.1360714632876134
H	-2.527141569214939	-0.4532962329173617	3.7323353411269715
H	4.474709358543406	-1.4042266743749707	4.425803722804688
H	-3.8703078915257714	4.717469991037388	5.0655852108451676
H	3.3449928256182435	4.498946975665744	4.741569677980155
H	-1.893005066311397	0.01869112504244998	-1.8358143360260946
H	4.1148898759289025	-1.5814469194494571	-1.3796859732242859
H	-2.6771912893612604	4.171155656745781	-1.8215505765047701
H	2.034429972980243	4.163280697293485	-2.893502042884895
H	-3.6894818536935143	-1.299828001914605	4.699540276893087
H	3.9628416283293877	0.14120071522510494	4.970094018013902
H	-2.509196338725349	4.723508461809758	4.049916793046798
H	3.6265432724324653	6.16366542988574	4.863572904228906
H	-2.11630630835485	-0.645629033522935	-3.2783207796866445
H	3.764796078430471	-1.618109616585191	-3.059971436423059
H	-2.362670165868158	5.52516990781495	-0.8102838204588414
H	3.025322862903218	5.490047619075734	-3.279440047589142
H	-4.0166597283125896	0.2896142718199992	4.426080163091669
H	4.436783568789476	-0.13017325655689238	3.497000889914362
H	-4.048995591540822	4.866297587827622	3.409161204370531
H	3.5232016804872477	5.376932980190711	3.304938480569596
Pb	-5.939329200883804	-3.7600087423262805	-5.035326630602919
Pb	0.21527095006493288	-4.196099827939667	-5.216936838096733
Pb	-6.067553796328153	2.148523124435893	-5.139005911194449
Pb	0.43559937797082937	2.1426941001505266	-5.672861479820236
Pb	-6.447847636067399	-4.019992686787884	0.805334352100633
Pb	-0.09102101958076697	-4.144953933760296	1.2526601484841762
Pb	-6.6276251363271514	2.734861651819958	0.45831396792959594
Pb	-0.11101161723618803	2.2772696202696996	1.2697066007382876
I	-3.031804108820425	-2.771472437652238	-5.314877567472241
I	2.9399775972761684	-5.110863442768935	-5.5178965107927285
I	-3.0307282239607267	2.0486803281345467	-4.5910221103686295
I	3.3645305131552807	2.5463504553851446	-6.208600100682253
I	-3.523287625148062	-3.7418083082491918	-0.029048150706427318
I	2.850040406823329	-4.3409460713031045	2.0850084549476264
I	-3.533762920819616	2.140388335806874	0.7112265844247705
I	2.7986786823406873	2.703636050220148	2.0877738003799915
I	-0.22498160732886716	-0.8410718861387476	0.5445746781378991
I	5.036614481279976	-0.7254751899132863	0.7083959193460612
I	-1.2507523724640193	5.4686997329710305	1.1003620821803557
I	6.380045158417582	5.459522953815243	2.0959153077056136
I	0.3726563441368656	-0.5491836087577281	7.522404508226609
I	5.164219164922941	-1.244284363838444	7.522240719921251
I	-1.0953184070640793	6.071275429658096	7.765787732137126
I	6.852659229557865	5.1517719179696515	7.013485576941468
I	0.5484473178972492	-3.8163900357270313	-2.2508602447027597
I	5.037739104359272	-4.9603515920268535	-1.8348340189182764
I	-0.044125680015343345	2.9209435869850435	-2.106323305900343
I	5.239656555700907	2.7368856117063056	-2.3240879514188677
I	-1.1186219285526389	-3.3569227288642534	4.064926101004072
I	5.733006457059421	-3.8026052822187726	4.505757613054001
I	-1.3918603971799144	2.3095178474145244	4.3232452967665544
I	6.854682682371802	1.9914329499092884	4.3459505608930575
