       96        
  the frame 2336
C	-4.46647340750796	-0.9514201280632595	-1.5446241211461216
C	2.8990784926221824	0.6158486528176748	-1.9424350572366205
C	-3.6766385551661274	6.527826628063255	-2.2967329867243693
C	3.0066557502777838	4.808003118230028	-0.7705478974538411
C	-3.1216091475081837	-1.270737706704112	2.8658027840720464
C	2.366381379524672	-1.3673418543490357	4.720651972145808
C	-3.6695119843725914	6.61890034239468	3.7221213805947566
C	1.6190118086537244	4.930149655180623	4.262549650882963
N	-3.022525690095608	-0.5867559150649624	-1.7556286514264758
N	2.5733404996550906	-0.8439187375474771	-1.6204263777769006
N	-3.604352310686287	5.131375993988786	-2.737384482574406
N	2.7487035411943888	5.242052112799449	-2.206437687454909
N	-3.2340147260328336	-1.1460767960824578	4.400658595002522
N	3.4384567499877416	-0.3616763870260562	4.396401298347821
N	-3.4872442023007078	5.138444804073986	3.7147471017454397
N	3.136234603369185	5.273493234668979	4.107473193101265
H	-4.6037080174253555	-1.3048214401402458	-0.5016493786479859
H	3.94533713321027	0.7522472854118175	-2.172025947758571
H	-4.441628964852603	6.685920209895101	-1.5305428580529676
H	2.9309937245326756	3.695449965438682	-0.7616899472790519
H	-3.476847760763079	-0.3496822332034461	2.398522241816345
H	2.4156785182431886	-2.160077135104548	4.043356398484555
H	-3.4276143824318828	6.984621632953289	2.761131382274013
H	1.6698827711794288	3.791907700831266	4.310630842961362
H	-4.582401546224434	-1.7741338775024553	-2.285885497078188
H	2.590170606620866	1.2135843987311448	-1.0773281389073777
H	-4.012846274965447	7.084918771769804	-3.148780658493283
H	2.3031914184907145	5.296077565029685	-0.14272306940685783
H	-3.7219392409007286	-2.171199920801184	2.6869524706973866
H	1.45940511917774	-0.7573993226703215	4.67928055057622
H	-3.019738501520158	6.9667844439985265	4.519564249948661
H	1.1331556445297546	5.398361639961956	3.4334109406555005
H	-5.0263623202538215	-0.07298923440526286	-1.7896078473620496
H	2.2272077397496464	0.9932982605251963	-2.670195324300003
H	-2.7175969928358312	6.964470157877091	-1.9110382127681687
H	4.044336774818385	5.1201988431696375	-0.5210527099461586
H	-2.057964168987723	-1.4467834253976095	2.7058215943624866
H	2.4001385571144747	-1.7610917202111178	5.752874100963028
H	-4.751407744222174	6.820474741158349	3.952847990275747
H	1.28059610876146	5.468063642727815	5.180707100185586
H	-2.379309264823927	-1.3038706126777753	-1.3732442739508797
H	1.6245216976209846	-0.9570991932188315	-1.1869947719990537
H	-2.964586328020761	4.976211236105356	-3.551729379482121
H	2.6766625906990673	6.275136368134937	-2.27755250247855
H	-4.254859114222221	-1.2090534062439249	4.643762522118514
H	3.368282232841334	0.4197842325914824	5.125650145561708
H	-4.189442129609993	4.659424085987069	3.1852582611684284
H	3.438634578640422	5.377921862990097	3.1368391606730537
H	-2.820010118198752	0.31018719665436234	-1.266578357676123
H	3.3409303092667044	-1.1112846106999317	-1.0088092680942946
H	-4.545514928444887	4.915212937807885	-2.9608650792083098
H	1.8583133518507846	4.893464743331844	-2.6292257171708218
H	-2.7433908693869884	-0.3052701913742854	4.830887988463453
H	3.25392088700906	0.1499395118258566	3.412624858027135
H	-3.520333598509093	4.7100674694361775	4.696718727111394
H	3.7203019729810003	4.649779466623257	4.621000476309166
H	-2.7583463143234455	-0.452197889833594	-2.7903411850619966
H	2.575359296529852	-1.5081641976915274	-2.422802158977225
H	-3.318579940097466	4.444114619872887	-1.9475273278882823
H	3.5137042680337	4.84683586336857	-2.8284350670011524
H	-2.721489397338047	-1.9650503456243962	4.831195889456851
H	4.469914051920156	-0.5407685661362855	4.3610576675789
H	-2.578912107574164	4.861708054608251	3.2809664341649936
H	3.3307734595885994	6.213324811445008	4.570542022572952
Pb	-6.515807138852039	-3.552621111221637	-5.300530656933676
Pb	-0.19550065120017948	-4.4832627649505135	-5.055458368959849
Pb	-6.253307496738232	2.682081476115848	-5.52160512639989
Pb	-0.11000492738231514	2.167657573629179	-5.1287543801370115
Pb	-6.136535221592704	-3.8303151333176366	0.5991330079488066
Pb	0.088719502888754	-4.11082043018005	1.024431700484753
Pb	-6.253102045919774	2.3703941049840376	1.1214679439144672
Pb	0.02582002752903573	2.2417810774926794	1.4567179309374725
I	-3.547280553647437	-2.927254734446275	-5.044290334376332
I	2.6539310795098427	-5.318801021904963	-5.341885898249526
I	-3.3886844268432883	1.851288129523658	-4.459782233988086
I	3.1128319155399495	2.6609750945169486	-6.003948459501925
I	-3.030813260383106	-3.74167238239231	0.1133966137088497
I	3.0528458986440805	-4.537202661246795	1.8971144092023593
I	-3.4094906438258774	2.732387054668525	0.00033493337599297887
I	2.825891966107731	2.111056457892344	2.214364695092426
I	-0.17472064941068646	-0.9988721377608099	0.4734459923091737
I	5.312501713332931	-0.8970577760409945	0.9345371663234546
I	-0.8646661185157234	5.334759082707217	1.1624524760566948
I	5.782521121473899	5.35475792260256	1.7049861099126116
I	0.11197199568634995	-0.8000693723272397	8.630467490948167
I	4.903249419082899	-0.8492077912814615	7.461337920750005
I	-1.247871259543061	5.243647307198201	6.848476960978621
I	6.711605047690129	5.71895769998028	6.600937798297372
I	1.1063718996368253	-4.336517886977909	-1.7545771463316289
I	5.0592470205283515	-4.268125600008524	-2.0834730255155733
I	-0.08505898269438572	3.439885683431234	-2.4121979646727754
I	5.677083143523738	3.306688357051983	-2.5997167595799118
I	-0.6577161194396152	-3.640245586547935	4.691975515897891
I	6.430086269535036	-3.1146691100134682	4.21865723177189
I	-1.2209312556587073	2.0215258330984125	4.277345219595444
I	7.065096195373856	1.533097441404679	3.7220027172106285
