       96        
  the frame 2472
C	-4.675525015203133	-0.5897233051011256	-1.96591907433841
C	2.7738196005294524	0.35585203273452815	-1.8731803358958519
C	-3.616149007414471	6.06620358438614	-1.9399436407070405
C	3.1680148094836067	5.337914107120305	-0.6891295102533157
C	-2.7328970175803784	-1.3689095012638066	3.2113360566012497
C	2.4516800688557123	-0.8384999734294863	3.978729419359542
C	-3.5939757232455922	7.159951051033525	3.6737959643690825
C	1.706022217320847	5.089726210756551	4.273040685339092
N	-3.284375101819815	-1.2039430781133567	-2.2197752945802
N	2.930725202428128	-1.139042156527832	-1.6940452318719372
N	-3.8570227565976944	4.943891503366222	-2.919932275887448
N	3.0075697000293715	5.3073593349300054	-2.2093113482142264
N	-3.140904688862301	-1.1566140947057597	4.686523851263814
N	3.867626394020484	-0.5547060292649516	4.345893292198456
N	-3.3141430010850788	5.725709881541293	3.7675048030564953
N	3.1126338618399427	5.221371580277654	4.72181210933925
H	-4.85155202257159	-0.3442329398142032	-0.9346231678395316
H	3.393955913913693	0.7332761255748285	-2.760471374971404
H	-3.373470541338582	5.619805175676716	-1.0212489729513894
H	2.9516343018874585	4.311680244703239	-0.28571729118725697
H	-3.19813885343891	-0.6061512355683516	2.6069459287185417
H	2.3082682655285027	-0.7250734395930803	2.902821666067697
H	-4.198485714356429	7.416955737715833	2.7822300859251685
H	1.6729925288059748	4.772572969647573	3.299332328158466
H	-5.431985552307601	-1.3747584687160272	-2.2292821703275973
H	3.1553898215308034	0.8607953249725125	-0.9510813715266662
H	-4.357116615075279	6.799874131281781	-2.1832972224030223
H	2.439202973527538	5.8882896278914005	-0.08195365648703767
H	-3.085916858806241	-2.367212467659045	2.9159399571418834
H	1.6781243559596477	-0.1231632083158342	4.446642224528612
H	-2.62851431011317	7.77211774156119	3.681178471121876
H	1.2123681279119833	6.047173687604314	4.316924194749212
H	-4.867927503135496	0.2867753699944259	-2.6449615614998114
H	1.6636104269909848	0.37600955062642955	-1.8930412521085083
H	-2.6503757476096643	6.455740476749777	-2.260828532460359
H	4.16602937467549	5.620357175749963	-0.5445152804348456
H	-1.6463346413450934	-1.1988939356344457	3.158480562861246
H	2.193744334986353	-1.9033875407668626	4.21849969661796
H	-4.193006813500304	7.426371903983306	4.577458166528156
H	1.1649816974497496	4.311623278616204	4.859528258303473
H	-3.1917673102837947	-2.201535216757481	-1.8404224476391302
H	2.5060619344006048	-1.5517692607500535	-0.8265492690123846
H	-3.9463574811500814	5.33877504528673	-3.890345623875015
H	3.0014486867597387	6.162101094468809	-2.677900445996731
H	-4.120931620510812	-1.4798425565943667	4.720377772412019
H	4.019801353613495	-0.7210422819862216	5.377559201001639
H	-4.225529690649444	5.226198284719108	3.580818761995998
H	3.7016244896363095	4.340346430655662	4.61883614499158
H	-2.6441794526277027	-0.5054074459286123	-1.7888055871154547
H	3.975551857433785	-1.2646979947448456	-1.5931546131211325
H	-4.719845695698919	4.356993379118644	-2.662846131219451
H	2.133861568024746	4.729705367630701	-2.4155065679920167
H	-3.112277120333081	-0.197408938940522	4.96529194090916
H	4.1355607999964175	0.4195772776696288	4.181115851218533
H	-2.9804632344831816	5.521319299133804	4.7480426519674985
H	3.127177073749043	5.3978063029577115	5.768313098296242
H	-3.137253301813008	-1.2875870512374983	-3.185521701469681
H	2.5883969880172195	-1.6700799210319806	-2.509671786981399
H	-2.9898074251906332	4.44030756827963	-2.8611672388144833
H	3.8327873107324457	4.7841734184269455	-2.5235761825875063
H	-2.680149260330121	-1.769259460610391	5.3693108674055265
H	4.458714932450053	-1.1182857606111338	3.73024556136145
H	-2.634441449984738	5.322584419825254	2.9827072514919855
H	3.5897726433355124	5.975383375988213	4.23939008048877
Pb	-6.400825252292441	-3.875070921661019	-5.639104662990733
Pb	-0.16833519902816238	-4.151744663817782	-5.182190856618968
Pb	-6.595549311089529	2.584114587253659	-5.672678171873782
Pb	-0.35557575167321426	2.4015367394591607	-4.849541138940952
Pb	-5.9990327165896895	-3.9676054435133152	0.787323657667991
Pb	0.32647003920786355	-4.407962748874361	1.3106701807291834
Pb	-6.33326207756687	2.4683236514213127	1.1715585514602183
Pb	-0.2516840137345575	1.993919729677762	1.3120187863475985
I	-3.453754463588369	-3.0072527333973182	-4.947100725504321
I	2.78941623584092	-5.103105050932736	-5.556877526092513
I	-3.269506607214003	1.6195352179618743	-4.8124480609805005
I	2.965361196118538	2.69076087710079	-6.10454811927645
I	-3.262883496977414	-3.998910414478788	-0.16701579344227857
I	3.121914005628788	-4.8394038112841455	1.9222265562289669
I	-3.503132863028291	2.666335748069872	0.045337345743271425
I	2.6747004808071457	2.274248176992752	2.0174191290366097
I	0.04807369887194028	-0.9096195690204735	0.2427963063783693
I	5.648910094590016	-0.7718297664008803	0.7005997410576159
I	-0.7727518827042934	5.380837720782656	1.494807273642288
I	6.04937815657791	5.3248359059695325	2.3433400630687995
I	-0.2362292753727294	-1.1760562911826182	8.238362251527901
I	5.07489364457933	-1.1358129269701995	7.766959671626113
I	-1.7762116068558311	5.373368472931413	6.946766215675124
I	6.684195886687932	5.387843158390585	6.50628163063564
I	0.8453084748040498	-4.203117365756109	-1.8625463190382734
I	5.459090609186841	-3.823524846378162	-2.153412973135122
I	-0.2056036410018277	3.5369014002847687	-2.042876719627992
I	5.691719643158581	3.4378600240601083	-2.40058234768086
I	-0.30383453658466986	-3.446468740782846	4.593736735896787
I	6.548235049175263	-2.7918993879786136	4.145658214344087
I	-1.4422701300100345	2.2634717208588846	4.217971786036808
I	7.340975758643284	1.798047413496636	4.067636677925829
